powerflow scaled loads and generation PSSE/new_1.csv
Bus Name;Area Number;Zone Number;Volt (PU);Volt (KV);Angle (Deg);Gen MW;Gen MVAR;Load MW;Load MVAR;Shunt MW;Shunt MVAR;To Bus Name;MW;MVAR;Transformer Ratio;Transformer Angle (Deg);Percent;Rating
101     NUC-A       21.600;1;77;1.0200;22.0320;16.5463;750.0000;81.3072;0.0000;0.0000;0.0000;-0.0000;;0.0000;0.0000;;0.0000;0;
;0;0;0.0000;0.0000;0.0000;0.0000;0.0000;0.0000;0.0000;0.0000;0.0000;151     NUCPANT     500.00    1  1;750.0001;81.3072;1.000UN;0.0000;60;1250
102     NUC-B       21.600;1;77;1.0200;22.0320;16.5463;750.0000;81.3072;0.0000;0.0000;0.0000;-0.0000;;0.0000;0.0000;;0.0000;0;
;0;0;0.0000;0.0000;0.0000;0.0000;0.0000;0.0000;0.0000;0.0000;0.0000;151     NUCPANT     500.00    1  1;750.0001;81.3072;1.000UN;0.0000;60;1250
151     NUCPANT     500.00;1;1;1.0119;505.9414;10.8884;0.0000;0.0000;0.0000;0.0000;0.0000;614.3441;;0.0000;0.0000;;0.0000;0;
;0;0;0.0000;0.0000;0.0000;0.0000;0.0000;0.0000;0.0000;0.0000;0.0000;101     NUC-A       21.600    1  1;-748.3591;-6.9136;1.000LK;0.0000;60;1250
;0;0;0.0000;0.0000;0.0000;0.0000;0.0000;0.0000;0.0000;0.0000;0.0000;102     NUC-B       21.600    1  1;-748.3591;-6.9136;1.000LK;0.0000;60;1250
;0;0;0.0000;0.0000;0.0000;0.0000;0.0000;0.0000;0.0000;0.0000;0.0000;152     MID500      500.00    1  1;465.9492;-167.8173;;0.0000;41;1200
;0;0;0.0000;0.0000;0.0000;0.0000;0.0000;0.0000;0.0000;0.0000;0.0000;152     MID500      500.00    1  2;465.9492;-167.8173;;0.0000;41;1200
;0;0;0.0000;0.0000;0.0000;0.0000;0.0000;0.0000;0.0000;0.0000;0.0000;201     HYDRO       500.00    2  1;564.8212;-264.8822;;0.0000;51;1200
152     MID500      500.00;1;1;1.0170;508.4924;-1.1165;0.0000;0.0000;0.0000;0.0000;0.0000;-0.0000;;0.0000;0.0000;;0.0000;0;
;0;0;0.0000;0.0000;0.0000;0.0000;0.0000;0.0000;0.0000;0.0000;0.0000;151     NUCPANT     500.00    1  1;-460.4329;-94.7653;;0.0000;39;1200
;0;0;0.0000;0.0000;0.0000;0.0000;0.0000;0.0000;0.0000;0.0000;0.0000;151     NUCPANT     500.00    1  2;-460.4329;-94.7653;;0.0000;39;1200
;0;0;0.0000;0.0000;0.0000;0.0000;0.0000;0.0000;0.0000;0.0000;0.0000;153     MID230      230.00    1  1;740.2827;297.3994;1.009LK;0.0000;32;2500
;0;0;0.0000;0.0000;0.0000;0.0000;0.0000;0.0000;0.0000;0.0000;0.0000;202     EAST500     500.00    2  1;42.4740;30.9343;;0.0000;4;1200
;0;0;0.0000;0.0000;0.0000;0.0000;0.0000;0.0000;0.0000;0.0000;0.0000;3004     WEST        500.00    5  1;138.1109;-138.8030;;0.0000;0;
153     MID230      230.00;1;1;0.9935;228.4969;-3.2357;0.0000;0.0000;200.0000;100.0000;0.0000;-0.0000;;0.0000;0.0000;;0.0000;0;
;0;0;0.0000;0.0000;0.0000;0.0000;0.0000;0.0000;0.0000;0.0000;0.0000;152     MID500      500.00    1  1;-740.2827;-266.0501;1.000UN;0.0000;31;2500
;0;0;0.0000;0.0000;0.0000;0.0000;0.0000;0.0000;0.0000;0.0000;0.0000;154     DOWNTN      230.00    1  1;251.7480;100.8719;;0.0000;91;300
;0;0;0.0000;0.0000;0.0000;0.0000;0.0000;0.0000;0.0000;0.0000;0.0000;154     DOWNTN      230.00    1  2;209.7900;80.7700;;0.0000;75;300
;0;0;0.0000;0.0000;0.0000;0.0000;0.0000;0.0000;0.0000;0.0000;0.0000;3006     UPTOWN      230.00    5  1;78.7445;-15.5919;;0.0000;0;
154     DOWNTN      230.00;1;1;0.9392;216.0117;-9.8824;0.0000;0.0000;1000.0000;800.0000;0.0000;-264.6183;;0.0000;0.0000;;0.0000;0;
;0;0;0.0000;0.0000;0.0000;0.0000;0.0000;0.0000;0.0000;0.0000;0.0000;153     MID230      230.00    1  1;-247.9702;-76.2166;;0.0000;92;300
;0;0;0.0000;0.0000;0.0000;0.0000;0.0000;0.0000;0.0000;0.0000;0.0000;153     MID230      230.00    1  2;-206.6418;-66.4541;;0.0000;77;300
;0;0;0.0000;0.0000;0.0000;0.0000;0.0000;0.0000;0.0000;0.0000;0.0000;203     EAST230     230.00    2  1;-122.3464;-53.6161;;0.0000;71;200
;0;0;0.0000;0.0000;0.0000;0.0000;0.0000;0.0000;0.0000;0.0000;0.0000;205     SUB230      230.00    2  1;-354.1113;-250.8575;;0.0000;77;600
;0;0;0.0000;0.0000;0.0000;0.0000;0.0000;0.0000;0.0000;0.0000;0.0000;3008     CATDOG      230.00    5  1;-68.9352;-88.2395;;0.0000;30;400
201     HYDRO       500.00;2;2;1.0400;520.0000;6.1595;0.0000;0.0000;0.0000;0.0000;0.0000;-324.4800;;0.0000;0.0000;;0.0000;0;
;0;0;0.0000;0.0000;0.0000;0.0000;0.0000;0.0000;0.0000;0.0000;0.0000;151     NUCPANT     500.00    1  1;-561.3012;191.3515;;0.0000;48;1200
;0;0;0.0000;0.0000;0.0000;0.0000;0.0000;0.0000;0.0000;0.0000;0.0000;202     EAST500     500.00    2  1;555.8046;12.9184;;0.0000;45;1200
;0;0;0.0000;0.0000;0.0000;0.0000;0.0000;0.0000;0.0000;0.0000;0.0000;205     SUB230      230.00    2  &1;603.1671;66.7787;;0.0000;49;1200
;0;0;0.0000;0.0000;0.0000;0.0000;0.0000;0.0000;0.0000;0.0000;0.0000;211     HYDRO_G     20.000    2  1;-597.6642;53.4160;1.000LK;0.0000;75;800
202     EAST500     500.00;2;2;1.0088;504.3923;-1.3179;0.0000;0.0000;0.0000;0.0000;0.0000;-0.0000;;0.0000;0.0000;;0.0000;0;
;0;0;0.0000;0.0000;0.0000;0.0000;0.0000;0.0000;0.0000;0.0000;0.0000;152     MID500      500.00    1  1;-42.4104;-127.6056;;0.0000;11;1200
;0;0;0.0000;0.0000;0.0000;0.0000;0.0000;0.0000;0.0000;0.0000;0.0000;201     HYDRO       500.00    2  1;-549.8212;-148.0513;;0.0000;47;1200
;0;0;0.0000;0.0000;0.0000;0.0000;0.0000;0.0000;0.0000;0.0000;0.0000;203     EAST230     230.00    2  1;592.2335;275.6570;1.000LK;0.0000;82;800
203     EAST230     230.00;2;2;0.9666;222.3280;-6.9167;0.0000;0.0000;300.0000;150.0000;0.0000;-46.7200;;0.0000;0.0000;;0.0000;0;
;0;0;0.0000;0.0000;0.0000;0.0000;0.0000;0.0000;0.0000;0.0000;0.0000;154     DOWNTN      230.00    1  1;123.1350;52.4198;;0.0000;69;200
;0;0;0.0000;0.0000;0.0000;0.0000;0.0000;0.0000;0.0000;0.0000;0.0000;202     EAST500     500.00    2  1;-590.5562;-207.5162;1.000UN;0.0000;78;800
;0;0;0.0000;0.0000;0.0000;0.0000;0.0000;0.0000;0.0000;0.0000;0.0000;205     SUB230      230.00    2  1;83.7102;25.9080;;0.0000;45;200
;0;0;0.0000;0.0000;0.0000;0.0000;0.0000;0.0000;0.0000;0.0000;0.0000;205     SUB230      230.00    2  2;83.7102;25.9080;;0.0000;45;200
205     SUB230      230.00;2;2;0.9493;218.3277;-9.1769;0.0000;0.0000;1200.0000;700.0000;0.0000;-270.3232;;0.0000;0.0000;;0.0000;0;
;0;0;0.0000;0.0000;0.0000;0.0000;0.0000;0.0000;0.0000;0.0000;0.0000;154     DOWNTN      230.00    1  1;354.8084;249.8685;;0.0000;76;600
;0;0;0.0000;0.0000;0.0000;0.0000;0.0000;0.0000;0.0000;0.0000;0.0000;201     HYDRO       500.00    2  &1;-590.7128;-147.8085;1.000UN;0.0000;76;800
;0;0;0.0000;0.0000;0.0000;0.0000;0.0000;0.0000;0.0000;0.0000;0.0000;203     EAST230     230.00    2  1;-83.2882;-29.4519;;0.0000;47;200
;0;0;0.0000;0.0000;0.0000;0.0000;0.0000;0.0000;0.0000;0.0000;0.0000;203     EAST230     230.00    2  2;-83.2882;-29.4519;;0.0000;47;200
;0;0;0.0000;0.0000;0.0000;0.0000;0.0000;0.0000;0.0000;0.0000;0.0000;206     URBGEN      18.000    2  1;-797.5245;-472.8347;1.000LK;0.0000;103;900
206     URBGEN      18.000;2;2;1.0238;18.4291;-2.9698;800.0000;600.0000;0.0000;0.0000;0.0000;-0.0000;;0.0000;0.0000;;0.0000;0;
;0;0;0.0000;0.0000;0.0000;0.0000;0.0000;0.0000;0.0000;0.0000;0.0000;205     SUB230      230.00    2  1;800.0048;600.0015;1.000UN;0.0000;111;900
211     HYDRO_G     20.000;2;2;1.0403;20.8069;12.9206;600.0000;17.3082;0.0000;0.0000;0.0000;-0.0000;;0.0000;0.0000;;0.0000;0;
;0;0;0.0000;0.0000;0.0000;0.0000;0.0000;0.0000;0.0000;0.0000;0.0000;201     HYDRO       500.00    2  1;599.9944;17.3235;1.000UN;0.0000;75;800
3001     MINE        230.00;5;5;1.0298;236.8623;-1.3727;0.0000;0.0000;0.0000;0.0000;0.0000;-0.0000;;0.0000;0.0000;;0.0000;0;
;0;0;0.0000;0.0000;0.0000;0.0000;0.0000;0.0000;0.0000;0.0000;0.0000;3002     E. MINE     500.00    5  1;55.9844;11.9745;1.000LK;0.0000;7;800
;0;0;0.0000;0.0000;0.0000;0.0000;0.0000;0.0000;0.0000;0.0000;0.0000;3003     S. MINE     230.00    5  1;202.5103;84.4547;;0.0000;0;
;0;0;0.0000;0.0000;0.0000;0.0000;0.0000;0.0000;0.0000;0.0000;0.0000;3011     MINE_G      13.800    5  1;-258.4945;-96.4291;1.000LK;0.0000;21;1300
3002     E. MINE     500.00;5;5;1.0280;513.9804;-1.8252;0.0000;0.0000;0.0000;0.0000;0.0000;-0.0000;;0.0000;0.0000;;0.0000;0;
;0;0;0.0000;0.0000;0.0000;0.0000;0.0000;0.0000;0.0000;0.0000;0.0000;3001     MINE        230.00    5  1;-55.9752;-11.5109;1.000UN;0.0000;7;800
;0;0;0.0000;0.0000;0.0000;0.0000;0.0000;0.0000;0.0000;0.0000;0.0000;3004     WEST        500.00    5  1;55.9751;11.5109;;0.0000;0;
3003     S. MINE     230.00;5;5;1.0234;235.3811;-2.2534;0.0000;0.0000;0.0000;0.0000;0.0000;-0.0000;;0.0000;0.0000;;0.0000;0;
;0;0;0.0000;0.0000;0.0000;0.0000;0.0000;0.0000;0.0000;0.0000;0.0000;3001     MINE        230.00    5  1;-202.5103;-80.8232;;0.0000;0;
;0;0;0.0000;0.0000;0.0000;0.0000;0.0000;0.0000;0.0000;0.0000;0.0000;3005     WEST        230.00    5  1;101.2551;40.4116;;0.0000;0;
;0;0;0.0000;0.0000;0.0000;0.0000;0.0000;0.0000;0.0000;0.0000;0.0000;3005     WEST        230.00    5  2;101.2551;40.4116;;0.0000;0;
3004     WEST        500.00;5;5;1.0165;508.2736;-3.4292;0.0000;0.0000;0.0000;0.0000;0.0000;-0.0000;;0.0000;0.0000;;0.0000;0;
;0;0;0.0000;0.0000;0.0000;0.0000;0.0000;0.0000;0.0000;0.0000;0.0000;152     MID500      500.00    1  1;-137.5549;-114.0912;;0.0000;0;
;0;0;0.0000;0.0000;0.0000;0.0000;0.0000;0.0000;0.0000;0.0000;0.0000;3002     E. MINE     500.00    5  1;-55.7821;-19.1798;;0.0000;0;
;0;0;0.0000;0.0000;0.0000;0.0000;0.0000;0.0000;0.0000;0.0000;0.0000;3005     WEST        230.00    5  1;193.3372;133.2711;1.000LK;0.0000;29;800
3005     WEST        230.00;5;5;0.9949;228.8377;-5.1791;0.0000;0.0000;100.0000;50.0000;0.0000;-0.0000;;0.0000;0.0000;;0.0000;0;
;0;0;0.0000;0.0000;0.0000;0.0000;0.0000;0.0000;0.0000;0.0000;0.0000;3003     S. MINE     230.00    5  1;-100.5510;-43.2432;;0.0000;0;
;0;0;0.0000;0.0000;0.0000;0.0000;0.0000;0.0000;0.0000;0.0000;0.0000;3003     S. MINE     230.00    5  2;-100.5510;-43.2432;;0.0000;0;
;0;0;0.0000;0.0000;0.0000;0.0000;0.0000;0.0000;0.0000;0.0000;0.0000;3004     WEST        500.00    5  1;-193.1238;-124.6001;1.000UN;0.0000;29;800
;0;0;0.0000;0.0000;0.0000;0.0000;0.0000;0.0000;0.0000;0.0000;0.0000;3006     UPTOWN      230.00    5  1;-78.4570;8.3885;;0.0000;0;
;0;0;0.0000;0.0000;0.0000;0.0000;0.0000;0.0000;0.0000;0.0000;0.0000;3008     CATDOG      230.00    5  &1;236.8145;98.7403;;0.0000;0;
;0;0;0.0000;0.0000;0.0000;0.0000;0.0000;0.0000;0.0000;0.0000;0.0000;3008     CATDOG      230.00    5  1;135.8686;53.9576;;0.0000;0;
3006     UPTOWN      230.00;5;5;0.9944;228.7175;-3.7919;0.0000;0.0000;0.0000;0.0000;0.0000;-0.0000;;0.0000;0.0000;;0.0000;0;
;0;0;0.0000;0.0000;0.0000;0.0000;0.0000;0.0000;0.0000;0.0000;0.0000;153     MID230      230.00    1  1;-78.6796;13.4063;;0.0000;0;
;0;0;0.0000;0.0000;0.0000;0.0000;0.0000;0.0000;0.0000;0.0000;0.0000;3005     WEST        230.00    5  1;78.6796;-13.4063;;0.0000;0;
3008     CATDOG      230.00;5;5;0.9588;220.5322;-9.0463;0.0000;0.0000;200.0000;75.0000;0.0000;-0.0000;;0.0000;0.0000;;0.0000;0;
;0;0;0.0000;0.0000;0.0000;0.0000;0.0000;0.0000;0.0000;0.0000;0.0000;154     DOWNTN      230.00    1  1;69.2529;63.8066;;0.0000;25;400
;0;0;0.0000;0.0000;0.0000;0.0000;0.0000;0.0000;0.0000;0.0000;0.0000;3005     WEST        230.00    5  &1;-34.7539;-17.8765;;0.0000;0;
;0;0;0.0000;0.0000;0.0000;0.0000;0.0000;0.0000;0.0000;0.0000;0.0000;3005     WEST        230.00    5  1;-134.5322;-54.2771;;0.0000;0;
;0;0;0.0000;0.0000;0.0000;0.0000;0.0000;0.0000;0.0000;0.0000;0.0000;3018     CATDOG_G    13.800    5  1;-99.9675;-66.6532;1.000LK;0.0000;80;150
3011     MINE_G      13.800;5;5;1.0400;14.3520;0.0000;258.6381;103.6063;0.0000;0.0000;0.0000;-0.0000;;0.0000;0.0000;;0.0000;0;
;0;0;0.0000;0.0000;0.0000;0.0000;0.0000;0.0000;0.0000;0.0000;0.0000;3001     MINE        230.00    5  1;258.6381;103.6063;1.000UN;0.0000;21;1300
3018     CATDOG_G    13.800;5;5;1.0220;14.1033;-4.0798;100.0000;80.0000;0.0000;0.0000;0.0000;-0.0000;;0.0000;0.0000;;0.0000;0;
;0;0;0.0000;0.0000;0.0000;0.0000;0.0000;0.0000;0.0000;0.0000;0.0000;3008     CATDOG      230.00    5  1;100.0005;80.0002;1.000UN;0.0000;85;150
